
     RDKit          3D

 21 21  0  0  0  0  0  0  0  0999 V2000
    3.2957    0.7821   -0.5077 C   0  0  0  0  0  0  0  0  0  0  0  0
   -2.6952   -1.5214    0.1204 C   0  0  0  0  0  0  0  0  0  0  0  0
   -1.9257   -2.0261   -0.9007 C   0  0  0  0  0  0  0  0  0  0  0  0
   -2.3040   -0.3764    0.8245 C   0  0  0  0  0  0  0  0  0  0  0  0
   -0.7561   -1.3629   -1.2043 C   0  0  0  0  0  0  0  0  0  0  0  0
    2.0322    0.0944   -0.2024 C   0  0  0  0  0  0  0  0  0  0  0  0
   -1.1304    0.2646    0.4986 C   0  0  0  0  0  0  0  0  0  0  0  0
   -0.3561   -0.2332   -0.5201 C   0  0  0  0  0  0  0  0  0  0  0  0
   -0.6882    1.4506    1.1999 C   0  0  0  0  0  0  0  0  0  0  0  0
    1.9623   -0.8386    0.6383 O   0  0  0  0  0  0  0  0  0  0  0  0
   -1.4050    1.8948    2.1285 O   0  0  0  0  0  0  0  0  0  0  0  0
    0.4847    2.1215    0.9006 O   0  0  0  0  0  0  0  0  0  0  0  0
    0.8189    0.4312   -0.8269 O   0  0  0  0  0  0  0  0  0  0  0  0
    3.6467    0.5996   -1.5520 H   0  0  0  0  0  0  0  0  0  0  0  0
    3.2323    1.8926   -0.3214 H   0  0  0  0  0  0  0  0  0  0  0  0
    4.0807    0.3597    0.1522 H   0  0  0  0  0  0  0  0  0  0  0  0
   -3.6191   -2.0122    0.3891 H   0  0  0  0  0  0  0  0  0  0  0  0
   -2.2130   -2.9188   -1.4631 H   0  0  0  0  0  0  0  0  0  0  0  0
   -2.9055    0.0194    1.6239 H   0  0  0  0  0  0  0  0  0  0  0  0
   -0.1412   -1.7556   -2.0110 H   0  0  0  0  0  0  0  0  0  0  0  0
    0.5860    3.1346    1.0335 H   0  0  0  0  0  0  0  0  0  0  0  0
  1  6  1  0
  2  3  2  0
  2  4  1  0
  3  5  1  0
  4  7  2  0
  5  8  2  0
  6 10  2  0
  6 13  1  0
  7  8  1  0
  7  9  1  0
  8 13  1  0
  9 11  2  0
  9 12  1  0
  1 14  1  0
  1 15  1  0
  1 16  1  0
  2 17  1  0
  3 18  1  0
  4 19  1  0
  5 20  1  0
 12 21  1  0
M  END
